*SPEF "ieee 1481-1999"
*DESIGN "rns_top_crt"
*DATE "13:54:00 Tuesday March 17, 2026"
*VENDOR "The OpenROAD Project"
*PROGRAM "OpenROAD"
*VERSION "edf00dff99f6c40d67a30c0e22a8191c5d2ed9d6"
*DESIGN_FLOW "NAME_SCOPE LOCAL" "PIN_CAP NONE"
*DIVIDER /
*DELIMITER :
*BUS_DELIMITER []
*T_UNIT 1 NS
*C_UNIT 1 PF
*R_UNIT 1 OHM
*L_UNIT 1 HENRY

*NAME_MAP
*1 A_in[0]
*2 A_in[10]
*3 A_in[11]
*4 A_in[12]
*5 A_in[13]
*6 A_in[14]
*7 A_in[15]
*8 A_in[1]
*9 A_in[2]
*10 A_in[3]
*11 A_in[4]
*12 A_in[5]
*13 A_in[6]
*14 A_in[7]
*15 A_in[8]
*16 A_in[9]
*17 B_in[0]
*18 B_in[10]
*19 B_in[11]
*20 B_in[12]
*21 B_in[13]
*22 B_in[14]
*23 B_in[15]
*24 B_in[1]
*25 B_in[2]
*26 B_in[3]
*27 B_in[4]
*28 B_in[5]
*29 B_in[6]
*30 B_in[7]
*31 B_in[8]
*32 B_in[9]
*33 Done
*34 Op_Sel[0]
*35 Op_Sel[1]
*36 Start
*39 X_out[0]
*40 X_out[10]
*41 X_out[11]
*42 X_out[12]
*43 X_out[13]
*44 X_out[14]
*45 X_out[15]
*46 X_out[1]
*47 X_out[2]
*48 X_out[3]
*49 X_out[4]
*50 X_out[5]
*51 X_out[6]
*52 X_out[7]
*53 X_out[8]
*54 X_out[9]
*55 clk
*56 rst_n
*57 ALU_Done_all
*58 ALU_EN
*59 A_reg\[0\]
*60 A_reg\[10\]
*61 A_reg\[11\]
*62 A_reg\[12\]
*63 A_reg\[13\]
*64 A_reg\[14\]
*65 A_reg\[15\]
*66 A_reg\[1\]
*67 A_reg\[2\]
*68 A_reg\[3\]
*69 A_reg\[4\]
*70 A_reg\[5\]
*71 A_reg\[6\]
*72 A_reg\[7\]
*73 A_reg\[8\]
*74 A_reg\[9\]
*75 B_reg\[0\]
*76 B_reg\[10\]
*77 B_reg\[11\]
*78 B_reg\[12\]
*79 B_reg\[13\]
*80 B_reg\[14\]
*81 B_reg\[15\]
*82 B_reg\[1\]
*83 B_reg\[2\]
*84 B_reg\[3\]
*85 B_reg\[4\]
*86 B_reg\[5\]
*87 B_reg\[6\]
*88 B_reg\[7\]
*89 B_reg\[8\]
*90 B_reg\[9\]
*91 CRT_Done
*92 CRT_Start
*93 CU_state_dbg\[0\]
*94 CU_state_dbg\[1\]
*95 CU_state_dbg\[2\]
*96 Encode_Done_A
*97 Encode_EN
*98 OpSel_reg\[0\]
*99 OpSel_reg\[1\]
*100 X_crt\[0\]
*101 X_crt\[10\]
*102 X_crt\[11\]
*103 X_crt\[12\]
*104 X_crt\[13\]
*105 X_crt\[14\]
*106 X_crt\[15\]
*107 X_crt\[1\]
*108 X_crt\[2\]
*109 X_crt\[3\]
*110 X_crt\[4\]
*111 X_crt\[5\]
*112 X_crt\[6\]
*113 X_crt\[7\]
*114 X_crt\[8\]
*115 X_crt\[9\]
*116 _0000_
*117 _0001_
*118 _0002_
*119 _0003_
*120 _0004_
*121 _0005_
*122 _0006_
*123 _0007_
*124 _0008_
*125 _0009_
*126 _0010_
*127 _0011_
*128 _0012_
*129 _0013_
*130 _0014_
*131 _0015_
*132 _0016_
*133 _0017_
*134 _0018_
*135 _0019_
*136 _0020_
*137 _0021_
*138 _0022_
*139 _0023_
*140 _0024_
*141 _0025_
*142 _0026_
*143 _0027_
*144 _0028_
*145 _0029_
*146 _0030_
*147 _0031_
*148 _0032_
*149 _0033_
*150 _0034_
*151 _0035_
*152 _0036_
*153 _0037_
*154 _0038_
*155 _0039_
*156 _0040_
*157 _0041_
*158 _0042_
*159 _0043_
*160 _0044_
*161 _0045_
*162 _0046_
*163 _0047_
*164 _0048_
*165 _0049_
*166 _0050_
*167 _0051_
*168 _0052_
*169 _0053_
*170 _0054_
*171 _0055_
*172 _0056_
*173 _0057_
*174 _0058_
*175 _0059_
*176 _0060_
*177 _0061_
*178 _0062_
*179 _0063_
*180 _0064_
*181 _0065_
*182 _0066_
*183 _0067_
*184 _0068_
*185 _0069_
*186 _0070_
*187 _0071_
*188 _0072_
*189 _0073_
*190 _0074_
*191 _0075_
*192 _0076_
*193 _0077_
*194 _0078_
*195 _0079_
*196 _0080_
*197 _0081_
*198 _0082_
*199 _0083_
*200 _0084_
*201 _0085_
*202 _0086_
*203 _0087_
*204 _0088_
*205 _0089_
*206 _0090_
*207 _0091_
*208 _0092_
*209 _0093_
*210 _0094_
*211 _0095_
*212 _0096_
*213 _0097_
*214 _0098_
*215 _0099_
*216 _0100_
*217 _0101_
*218 _0102_
*219 _0103_
*220 _0104_
*221 _0105_
*222 _0106_
*223 _0107_
*224 _0108_
*225 _0109_
*226 _0110_
*227 _0111_
*228 _0112_
*229 _0113_
*230 _0114_
*231 _0115_
*232 _0116_
*233 _0117_
*234 _0118_
*235 _0119_
*236 _0120_
*237 _0121_
*238 _0122_
*239 _0123_
*240 _0124_
*241 _0125_
*242 _0126_
*243 _0127_
*244 _0128_
*245 _0129_
*246 _0130_
*247 _0131_
*248 _0132_
*249 _0133_
*250 _0134_
*251 _0135_
*252 _0136_
*253 _0137_
*254 _0138_
*255 _0139_
*256 _0140_
*257 _0141_
*258 _0142_
*259 _0143_
*260 _0144_
*261 _0145_
*262 _0146_
*263 _0147_
*264 _0148_
*265 _0149_
*266 _0150_
*267 _0151_
*268 _0152_
*269 _0153_
*270 _0154_
*271 _0155_
*272 _0156_
*273 _0157_
*274 _0158_
*275 _0159_
*276 _0160_
*277 _0161_
*278 _0162_
*279 _0163_
*280 _0164_
*281 _0165_
*282 _0166_
*283 _0167_
*284 _0168_
*285 _0169_
*286 _0170_
*287 _0171_
*288 _0172_
*289 _0173_
*290 _0174_
*291 _0175_
*292 _0176_
*293 _0177_
*294 _0178_
*295 _0179_
*296 _0180_
*297 _0181_
*298 _0182_
*299 _0183_
*300 _0184_
*301 _0185_
*302 _0186_
*303 _0187_
*304 _0188_
*305 _0189_
*306 _0190_
*307 _0191_
*308 _0192_
*309 _0193_
*310 _0194_
*311 _0195_
*312 _0196_
*313 _0197_
*314 _0198_
*315 _0199_
*316 _0200_
*317 _0201_
*318 _0202_
*319 _0203_
*320 _0204_
*321 _0205_
*322 _0206_
*323 _0207_
*324 _0208_
*325 _0209_
*326 _0210_
*327 _0211_
*328 _0212_
*329 _0213_
*330 _0214_
*331 _0215_
*332 _0216_
*333 _0217_
*334 _0218_
*335 _0219_
*336 _0220_
*337 _0221_
*338 _0222_
*339 _0223_
*340 _0224_
*341 _0225_
*342 _0226_
*343 _0227_
*344 _0228_
*345 _0229_
*346 _0230_
*347 _0231_
*348 _0232_
*349 _0233_
*350 _0234_
*351 _0235_
*352 _0236_
*353 _0237_
*354 _0238_
*355 _0239_
*356 _0240_
*357 _0241_
*358 _0242_
*359 _0243_
*360 _0244_
*361 _0245_
*362 _0246_
*363 _0247_
*364 _0248_
*365 _0249_
*366 _0250_
*367 _0251_
*368 _0252_
*369 _0253_
*370 _0254_
*371 _0255_
*372 _0256_
*373 _0257_
*374 _0258_
*375 _0259_
*376 _0260_
*377 _0261_
*378 _0262_
*379 _0263_
*380 _0264_
*381 _0265_
*382 _0266_
*383 _0267_
*384 _0268_
*385 _0269_
*386 _0270_
*387 _0271_
*388 _0272_
*389 _0273_
*390 _0274_
*391 _0275_
*392 _0276_
*393 _0277_
*394 _0278_
*395 _0279_
*396 _0280_
*397 _0281_
*398 _0282_
*399 _0283_
*400 _0284_
*401 _0285_
*402 _0286_
*403 _0287_
*404 _0288_
*405 _0289_
*406 _0290_
*407 _0291_
*408 _0292_
*409 _0293_
*410 _0294_
*411 _0295_
*412 _0296_
*413 _0297_
*414 _0298_
*415 _0299_
*416 _0300_
*417 _0301_
*418 _0302_
*419 _0303_
*420 _0304_
*421 _0305_
*422 _0306_
*423 _0307_
*424 _0308_
*425 _0309_
*426 _0310_
*427 _0311_
*428 _0312_
*429 _0313_
*430 _0314_
*431 _0315_
*432 _0316_
*433 _0317_
*434 _0318_
*435 _0319_
*436 _0320_
*437 _0321_
*438 _0322_
*439 _0323_
*440 _0324_
*441 _0325_
*442 _0326_
*443 _0327_
*444 _0328_
*445 _0329_
*446 _0330_
*447 _0331_
*448 _0332_
*449 _0333_
*450 _0334_
*451 _0335_
*452 _0336_
*453 _0337_
*454 _0338_
*455 _0339_
*456 _0340_
*457 _0341_
*458 _0342_
*459 _0343_
*460 _0344_
*461 _0345_
*462 _0346_
*463 _0347_
*464 _0348_
*465 _0349_
*466 _0350_
*467 _0351_
*468 _0352_
*469 _0353_
*470 _0354_
*471 _0355_
*472 _0356_
*473 _0357_
*474 _0358_
*475 _0359_
*476 _0360_
*477 _0361_
*478 _0362_
*479 _0363_
*480 _0364_
*481 _0365_
*482 _0366_
*483 _0367_
*484 _0368_
*485 _0369_
*486 _0370_
*487 _0371_
*488 _0372_
*489 _0373_
*490 _0374_
*491 _0375_
*492 _0376_
*493 _0377_
*494 _0378_
*495 _0379_
*496 _0380_
*497 _0381_
*498 _0382_
*499 _0383_
*500 _0384_
*501 _0385_
*502 _0386_
*503 _0387_
*504 _0388_
*505 _0389_
*506 _0390_
*507 _0391_
*508 _0392_
*509 _0393_
*510 _0394_
*511 _0395_
*512 _0396_
*513 _0397_
*514 _0398_
*515 _0399_
*516 _0400_
*517 _0401_
*518 _0402_
*519 _0403_
*520 _0404_
*521 _0405_
*522 _0406_
*523 _0407_
*524 _0408_
*525 _0409_
*526 _0410_
*527 _0411_
*528 _0412_
*529 _0413_
*530 _0414_
*531 _0415_
*532 _0416_
*533 _0417_
*534 _0418_
*535 _0419_
*536 _0420_
*537 _0421_
*538 _0422_
*539 _0423_
*540 _0424_
*541 _0425_
*542 _0426_
*543 _0427_
*544 _0428_
*545 _0429_
*546 _0430_
*547 _0431_
*548 _0432_
*549 _0433_
*550 _0434_
*551 _0435_
*552 _0436_
*553 _0437_
*554 _0438_
*555 _0439_
*556 _0440_
*557 _0441_
*558 _0442_
*559 _0443_
*560 _0444_
*561 _0445_
*562 _0446_
*563 _0447_
*564 _0448_
*565 _0449_
*566 _0450_
*567 _0451_
*568 _0452_
*569 _0453_
*570 _0454_
*571 _0455_
*572 _0456_
*573 _0457_
*574 _0458_
*575 _0459_
*576 _0460_
*577 _0461_
*578 _0462_
*579 _0463_
*580 _0464_
*581 _0465_
*582 _0466_
*583 _0467_
*584 _0468_
*585 _0469_
*586 _0470_
*587 _0471_
*588 _0472_
*589 _0473_
*590 _0474_
*591 _0475_
*592 _0476_
*593 _0477_
*594 _0478_
*595 _0479_
*596 _0480_
*597 _0481_
*598 _0482_
*599 _0483_
*600 _0484_
*601 _0485_
*602 _0486_
*603 _0487_
*604 _0488_
*605 _0489_
*606 _0490_
*607 _0491_
*608 _0492_
*609 _0493_
*610 _0494_
*611 _0495_
*612 _0496_
*613 _0497_
*614 _0498_
*615 _0499_
*616 _0500_
*617 _0501_
*618 _0502_
*619 _0503_
*620 _0504_
*621 _0505_
*622 _0506_
*623 _0507_
*624 _0508_
*625 _0509_
*626 _0510_
*627 _0511_
*628 _0512_
*629 _0513_
*630 _0514_
*631 _0515_
*632 _0516_
*633 _0517_
*634 _0518_
*635 _0519_
*636 _0520_
*637 _0521_
*638 _0522_
*639 _0523_
*640 _0524_
*641 _0525_
*642 _0526_
*643 _0527_
*644 _0528_
*645 _0529_
*646 _0530_
*647 _0531_
*648 _0532_
*649 _0533_
*650 _0534_
*651 _0535_
*652 _0536_
*653 _0537_
*654 _0538_
*655 _0539_
*656 _0540_
*657 _0541_
*658 _0542_
*659 _0543_
*660 _0544_
*661 _0545_
*662 _0546_
*663 _0547_
*664 _0548_
*665 _0549_
*666 _0550_
*667 _0551_
*668 _0552_
*669 _0553_
*670 _0554_
*671 _0555_
*672 _0556_
*673 _0557_
*674 _0558_
*675 _0559_
*676 _0560_
*677 _0561_
*678 _0562_
*679 _0563_
*680 _0564_
*681 _0565_
*682 _0566_
*683 _0567_
*684 _0568_
*685 _0569_
*686 _0570_
*687 _0571_
*688 _0572_
*689 _0573_
*690 _0574_
*691 _0575_
*692 _0576_
*693 _0577_
*694 _0578_
*695 _0579_
*696 _0580_
*697 _0581_
*698 _0582_
*699 _0583_
*700 _0584_
*701 _0585_
*702 _0586_
*703 _0587_
*704 _0588_
*705 _0589_
*706 _0590_
*707 _0591_
*708 _0592_
*709 _0593_
*710 _0594_
*711 _0595_
*712 _0596_
*713 _0597_
*714 _0598_
*715 _0599_
*716 _0600_
*717 _0601_
*718 _0602_
*719 _0603_
*720 _0604_
*721 _0605_
*722 _0606_
*723 _0607_
*724 _0608_
*725 _0609_
*726 _0610_
*727 _0611_
*728 _0612_
*729 _0613_
*730 _0614_
*731 _0615_
*732 _0616_
*733 _0617_
*734 _0618_
*735 _0619_
*736 _0620_
*737 _0621_
*738 _0622_
*739 _0623_
*740 _0624_
*741 _0625_
*742 _0626_
*743 _0627_
*744 _0628_
*745 _0629_
*746 _0630_
*747 _0631_
*748 _0632_
*749 _0633_
*750 _0634_
*751 _0635_
*752 _0636_
*753 _0637_
*754 _0638_
*755 _0639_
*756 _0640_
*757 _0641_
*758 _0642_
*759 _0643_
*760 _0644_
*761 _0645_
*762 _0646_
*763 _0647_
*764 _0648_
*765 _0649_
*766 _0650_
*767 _0651_
*768 _0652_
*769 _0653_
*770 _0654_
*771 _0655_
*772 _0656_
*773 _0657_
*774 _0658_
*775 _0659_
*776 _0660_
*777 _0661_
*778 _0662_
*779 _0663_
*780 _0664_
*781 _0665_
*782 _0666_
*783 _0667_
*784 _0668_
*785 _0669_
*786 _0670_
*787 _0671_
*788 _0672_
*789 _0673_
*790 _0674_
*791 _0675_
*792 _0676_
*793 _0677_
*794 _0678_
*795 _0679_
*796 _0680_
*797 _0681_
*798 _0682_
*799 _0683_
*800 _0684_
*801 _0685_
*802 _0686_
*803 _0687_
*804 _0688_
*805 _0689_
*806 _0690_
*807 _0691_
*808 _0692_
*809 _0693_
*810 _0694_
*811 _0695_
*812 _0696_
*813 _0697_
*814 _0698_
*815 _0699_
*816 _0700_
*817 _0701_
*818 _0702_
*819 _0703_
*820 _0704_
*821 _0705_
*822 _0706_
*823 _0707_
*824 _0708_
*825 _0709_
*826 _0710_
*827 _0711_
*828 _0712_
*829 _0713_
*830 _0714_
*831 _0715_
*832 _0716_
*833 _0717_
*834 _0718_
*835 _0719_
*836 _0720_
*837 _0721_
*838 _0722_
*839 _0723_
*840 _0724_
*841 _0725_
*842 _0726_
*843 _0727_
*844 _0728_
*845 _0729_
*846 _0730_
*847 _0731_
*848 _0732_
*849 _0733_
*850 _0734_
*851 _0735_
*852 _0736_
*853 _0737_
*854 _0738_
*855 _0739_
*856 _0740_
*857 _0741_
*858 _0742_
*859 _0743_
*860 _0744_
*861 _0745_
*862 _0746_
*863 _0747_
*864 _0748_
*865 _0749_
*866 _0750_
*867 _0751_
*868 _0752_
*869 _0753_
*870 _0754_
*871 _0755_
*872 _0756_
*873 _0757_
*874 _0758_
*875 _0759_
*876 _0760_
*877 _0761_
*878 _0762_
*879 _0763_
*880 _0764_
*881 _0765_
*882 _0766_
*883 _0767_
*884 _0768_
*885 _0769_
*886 _0770_
*887 _0771_
*888 _0772_
*889 _0773_
*890 _0774_
*891 _0775_
*892 _0776_
*893 _0777_
*894 _0778_
*895 _0779_
*896 _0780_
*897 _0781_
*898 _0782_
*899 _0783_
*900 _0784_
*901 _0785_
*902 _0786_
*903 _0787_
*904 _0788_
*905 _0789_
*906 _0790_
*907 _0791_
*908 _0792_
*909 _0793_
*910 _0794_
*911 _0795_
*912 _0796_
*913 _0797_
*914 _0798_
*915 _0799_
*916 _0800_
*917 _0801_
*918 _0802_
*919 _0803_
*920 _0804_
*921 _0805_
*922 _0806_
*923 _0807_
*924 _0808_
*925 _0809_
*926 _0810_
*927 _0811_
*928 _0812_
*929 _0813_
*930 _0814_
*931 _0815_
*932 _0816_
*933 _0817_
*934 _0818_
*935 _0819_
*936 _0820_
*937 _0821_
*938 _0822_
*939 _0823_
*940 _0824_
*941 _0825_
*942 _0826_
*943 _0827_
*944 _0828_
*945 _0829_
*946 _0830_
*947 _0831_
*948 _0832_
*949 _0833_
*950 _0834_
*951 _0835_
*952 _0836_
*953 _0837_
*954 _0838_
*955 _0839_
*956 _0840_
*957 _0841_
*958 _0842_
*959 _0843_
*960 _0844_
*961 _0845_
*962 _0846_
*963 _0847_
*964 _0848_
*965 _0849_
*966 _0850_
*967 _0851_
*968 _0852_
*969 _0853_
*970 _0854_
*971 _0855_
*972 _0856_
*973 _0857_
*974 _0858_
*975 _0859_
*976 _0860_
*977 _0861_
*978 _0862_
*979 _0863_
*980 _0864_
*981 _0865_
*982 _0866_
*983 _0867_
*984 _0868_
*985 _0869_
*986 _0870_
*987 _0871_
*988 _0872_
*989 _0873_
*990 _0874_
*991 _0875_
*992 _0876_
*993 _0877_
*994 _0878_
*995 _0879_
*996 _0880_
*997 _0881_
*998 _0882_
*999 _0883_
*1000 _0884_
*1001 _0885_
*1002 _0886_
*1003 _0887_
*1004 _0888_
*1005 _0889_
*1006 _0890_
*1007 _0891_
*1008 _0892_
*1009 _0893_
*1010 _0894_
*1011 _0895_
*1012 _0896_
*1013 _0897_
*1014 _0898_
*1015 _0899_
*1016 _0900_
*1017 _0901_
*1018 _0902_
*1019 _0903_
*1020 _0904_
*1021 _0905_
*1022 _0906_
*1023 _0907_
*1024 _0908_
*1025 _0909_
*1026 _0910_
*1027 _0911_
*1028 _0912_
*1029 _0913_
*1030 _0914_
*1031 _0915_
*1032 _0916_
*1033 _0917_
*1034 _0918_
*1035 _0919_
*1036 _0920_
*1037 _0921_
*1038 _0922_
*1039 _0923_
*1040 _0924_
*1041 _0925_
*1042 _0926_
*1043 _0927_
*1044 _0928_
*1045 _0929_
*1046 _0930_
*1047 _0931_
*1048 _0932_
*1049 _0933_
*1050 _0934_
*1051 _0935_
*1052 _0936_
*1053 _0937_
*1054 _0938_
*1055 _0939_
*1056 _0940_
*1057 _0941_
*1058 _0942_
*1059 _0943_
*1060 _0944_
*1061 _0945_
*1062 _0946_
*1063 _0947_
*1064 _0948_
*1065 _0949_
*1066 _0950_
*1067 _0951_
*1068 _0952_
*1069 _0953_
*1070 _0954_
*1071 _0955_
*1072 _0956_
*1073 _0957_
*1074 _0958_
*1075 _0959_
*1076 _0960_
*1077 _0961_
*1078 _0962_
*1079 _0963_
*1080 _0964_
*1081 _0965_
*1082 _0966_
*1083 _0967_
*1084 _0968_
*1085 _0969_
*1086 _0970_
*1087 _0971_
*1088 _0972_
*1089 _0973_
*1090 _0974_
*1091 _0975_
*1092 _0976_
*1093 _0977_
*1094 _0978_
*1095 _0979_
*1096 _0980_
*1097 _0981_
*1098 _0982_
*1099 _0983_
*1100 _0984_
*1101 _0985_
*1102 _0986_
*1103 _0987_
*1104 _0988_
*1105 _0989_
*1106 _0990_
*1107 _0991_
*1108 _0992_
*1109 _0993_
*1110 _0994_
*1111 _0995_
*1112 _0996_
*1113 _0997_
*1114 _0998_
*1115 _0999_
*1116 _1000_
*1117 _1001_
*1118 _1002_
*1119 _1003_
*1120 _1004_
*1121 _1005_
*1122 _1006_
*1123 _1007_
*1124 _1008_
*1125 _1009_
*1126 _1010_
*1127 _1011_
*1128 _1012_
*1129 _1013_
*1130 _1014_
*1131 _1015_
*1132 _1016_
*1133 _1017_
*1134 _1018_
*1135 _1019_
*1136 _1020_
*1137 _1021_
*1138 _1022_
*1139 _1023_
*1140 _1024_
*1141 _1025_
*1142 _1026_
*1143 _1027_
*1144 _1028_
*1145 _1029_
*1146 _1030_
*1147 _1031_
*1148 _1032_
*1149 _1033_
*1150 _1034_
*1151 _1035_
*1152 _1036_
*1153 _1037_
*1154 _1038_
*1155 _1039_
*1156 _1040_
*1157 _1041_
*1158 _1042_
*1159 _1043_
*1160 _1044_
*1161 _1045_
*1162 _1046_
*1163 _1047_
*1164 _1048_
*1165 _1049_
*1166 _1050_
*1167 _1051_
*1168 _1052_
*1169 _1053_
*1170 _1054_
*1171 _1055_
*1172 _1056_
*1173 _1057_
*1174 _1058_
*1175 _1059_
*1176 _1060_
*1177 _1061_
*1178 _1062_
*1179 _1063_
*1180 _1064_
*1181 _1065_
*1182 _1066_
*1183 _1067_
*1184 _1068_
*1185 _1069_
*1186 _1070_
*1187 _1071_
*1188 _1072_
*1189 _1073_
*1190 _1074_
*1191 _1075_
*1192 _1076_
*1193 _1077_
*1194 _1078_
*1195 _1079_
*1196 _1080_
*1197 _1081_
*1198 _1082_
*1199 _1083_
*1200 _1084_
*1201 _1085_
*1202 _1086_
*1203 _1087_
*1204 _1088_
*1205 _1089_
*1206 _1090_
*1207 _1091_
*1208 _1092_
*1209 _1093_
*1210 _1094_
*1211 _1095_
*1212 _1096_
*1213 _1097_
*1214 _1098_
*1215 _1099_
*1216 _1100_
*1217 _1101_
*1218 _1102_
*1219 _1103_
*1220 _1104_
*1221 _1105_
*1222 _1106_
*1223 _1107_
*1224 _1108_
*1225 _1109_
*1226 _1110_
*1227 _1111_
*1228 _1112_
*1229 _1113_
*1230 _1114_
*1231 _1115_
*1232 _1116_
*1233 _1117_
*1234 _1118_
*1235 _1119_
*1236 _1120_
*1237 _1121_
*1238 _1122_
*1239 _1123_
*1240 _1124_
*1241 _1125_
*1242 _1126_
*1243 _1127_
*1244 _1128_
*1245 _1129_
*1246 _1130_
*1247 _1131_
*1248 _1132_
*1249 _1133_
*1250 _1134_
*1251 _1135_
*1252 _1136_
*1253 _1137_
*1254 _1138_
*1255 _1139_
*1256 _1140_
*1257 _1141_
*1258 _1142_
*1259 _1143_
*1260 _1144_
*1261 _1145_
*1262 _1146_
*1263 _1147_
*1264 _1148_
*1265 _1149_
*1266 _1150_
*1267 _1151_
*1268 _1152_
*1269 _1153_
*1270 _1154_
*1271 _1155_
*1272 _1156_
*1273 _1157_
*1274 _1158_
*1275 _1159_
*1276 _1160_
*1277 _1161_
*1278 _1162_
*1279 _1163_
*1280 _1164_
*1281 _1165_
*1282 _1166_
*1283 _1167_
*1284 _1168_
*1285 _1169_
*1286 _1170_
*1287 _1171_
*1288 _1172_
*1289 _1173_
*1290 _1174_
*1291 _1175_
*1292 _1176_
*1293 _1177_
*1294 _1178_
*1295 _1179_
*1296 _1180_
*1297 _1181_
*1298 _1182_
*1299 _1183_
*1300 _1184_
*1301 _1185_
*1302 _1186_
*1303 _1187_
*1304 _1188_
*1305 _1189_
*1306 _1190_
*1307 _1191_
*1308 _1192_
*1309 _1193_
*1310 _1194_
*1311 _1195_
*1312 _1196_
*1313 _1197_
*1314 _1198_
*1315 _1199_
*1316 _1200_
*1317 _1201_
*1318 _1202_
*1319 _1203_
*1320 _1204_
*1321 _1205_
*1322 _1206_
*1323 _1207_
*1324 _1208_
*1325 _1209_
*1326 _1210_
*1327 _1211_
*1328 _1212_
*1329 _1213_
*1330 _1214_
*1331 _1215_
*1332 _1216_
*1333 _1217_
*1334 _1218_
*1335 _1219_
*1336 _1220_
*1337 _1221_
*1338 _1222_
*1339 _1223_
*1340 _1224_
*1341 _1225_
*1342 _1226_
*1343 _1227_
*1344 _1228_
*1345 _1229_
*1346 _1230_
*1347 _1231_
*1348 _1232_
*1349 _1233_
*1350 _1234_
*1351 _1235_
*1352 _1236_
*1353 _1237_
*1354 _1238_
*1355 _1239_
*1356 _1240_
*1357 _1241_
*1358 _1242_
*1359 _1243_
*1360 _1244_
*1361 _1245_
*1362 _1246_
*1363 _1247_
*1364 _1248_
*1365 _1249_
*1366 _1250_
*1367 _1251_
*1368 _1252_
*1369 _1253_
*1370 _1254_
*1371 _1255_
*1372 _1256_
*1373 _1257_
*1374 _1258_
*1375 _1259_
*1376 _1260_
*1377 _1261_
*1378 _1262_
*1379 _1263_
*1380 _1264_
*1381 _1265_
*1382 _1266_
*1383 _1267_
*1384 _1268_
*1385 _1269_
*1386 _1270_
*1387 _1271_
*1388 _1272_
*1389 _1273_
*1390 _1274_
*1391 _1275_
*1392 _1276_
*1393 _1277_
*1394 _1278_
*1395 _1279_
*1396 _1280_
*1397 _1281_
*1398 _1282_
*1399 _1283_
*1400 _1284_
*1401 _1285_
*1402 _1286_
*1403 _1287_
*1404 _1288_
*1405 _1289_
*1406 _1290_
*1407 _1291_
*1408 _1292_
*1409 _1293_
*1410 _1294_
*1411 _1295_
*1412 _1296_
*1413 _1297_
*1414 _1298_
*1415 _1299_
*1416 _1300_
*1417 _1301_
*1418 _1302_
*1419 _1303_
*1420 _1304_
*1421 _1305_
*1422 _1306_
*1423 _1307_
*1424 _1308_
*1425 _1309_
*1426 _1310_
*1427 _1311_
*1428 _1312_
*1429 _1313_
*1430 _1314_
*1431 _1315_
*1432 _1316_
*1433 _1317_
*1434 _1318_
*1435 _1319_
*1436 _1320_
*1437 _1321_
*1438 _1322_
*1439 _1323_
*1440 _1324_
*1441 _1325_
*1442 _1326_
*1443 _1327_
*1444 _1328_
*1445 _1329_
*1446 _1330_
*1447 _1331_
*1448 _1332_
*1449 _1333_
*1450 _1334_
*1451 _1335_
*1452 _1336_
*1453 _1337_
*1454 _1338_
*1455 _1339_
*1456 _1340_
*1457 _1341_
*1458 _1342_
*1459 _1343_
*1460 _1344_
*1461 _1345_
*1462 _1346_
*1463 _1347_
*1464 _1348_
*1465 _1349_
*1466 _1350_
*1467 _1351_
*1468 _1352_
*1469 _1353_
*1470 _1354_
*1471 _1355_
*1472 _1356_
*1473 _1357_
*1474 _1358_
*1475 _1359_
*1476 _1360_
*1477 _1361_
*1478 _1362_
*1479 _1363_
*1480 _1364_
*1481 _1365_
*1482 _1366_
*1483 _1367_
*1484 _1368_
*1485 _1369_
*1486 _1370_
*1487 _1371_
*1488 _1372_
*1489 _1373_
*1490 _1374_
*1491 _1375_
*1492 _1376_
*1493 _1377_
*1494 _1378_
*1495 _1379_
*1496 _1380_
*1497 _1381_
*1498 _1382_
*1499 _1383_
*1500 _1384_
*1501 _1385_
*1502 _1386_
*1503 _1387_
*1504 _1388_
*1505 _1389_
*1506 _1390_
*1507 _1391_
*1508 _1392_
*1509 _1393_
*1510 _1394_
*1511 _1395_
*1512 _1396_
*1513 _1397_
*1514 _1398_
*1515 _1399_
*1516 _1400_
*1517 _1401_
*1518 _1402_
*1519 _1403_
*1520 _1404_
*1521 _1405_
*1522 _1406_
*1523 _1407_
*1524 _1408_
*1525 _1409_
*1526 _1410_
*1527 _1411_
*1528 _1412_
*1529 _1413_
*1530 _1414_
*1531 _1415_
*1532 _1416_
*1533 _1417_
*1534 _1418_
*1535 _1419_
*1536 _1420_
*1537 _1421_
*1538 _1422_
*1539 _1423_
*1540 _1424_
*1541 _1425_
*1542 _1426_
*1543 _1427_
*1544 _1428_
*1545 _1429_
*1546 _1430_
*1547 _1431_
*1548 _1432_
*1549 _1433_
*1550 _1434_
*1551 _1435_
*1552 _1436_
*1553 _1437_
*1554 _1438_
*1555 _1439_
*1556 _1440_
*1557 _1441_
*1558 _1442_
*1559 _1443_
*1560 _1444_
*1561 _1445_
*1562 _1446_
*1563 _1447_
*1564 _1448_
*1565 _1449_
*1566 _1450_
*1567 _1451_
*1568 _1452_
*1569 _1453_
*1570 _1454_
*1571 _1455_
*1572 _1456_
*1573 _1457_
*1574 _1458_
*1575 _1459_
*1576 _1460_
*1577 _1461_
*1578 _1462_
*1579 _1463_
*1580 _1464_
*1581 _1465_
*1582 _1466_
*1583 _1467_
*1584 _1468_
*1585 _1469_
*1586 _1470_
*1587 _1471_
*1588 _1472_
*1589 _1473_
*1590 _1474_
*1591 _1475_
*1592 _1476_
*1593 _1477_
*1594 _1478_
*1595 _1479_
*1596 _1480_
*1597 _1481_
*1598 _1482_
*1599 _1483_
*1600 _1484_
*1601 _1485_
*1602 _1486_
*1603 _1487_
*1604 _1488_
*1605 _1489_
*1606 _1490_
*1607 _1491_
*1608 _1492_
*1609 _1493_
*1610 _1494_
*1611 _1495_
*1612 _1496_
*1613 _1497_
*1614 _1498_
*1615 _1499_
*1616 _1500_
*1617 _1501_
*1618 _1502_
*1619 _1503_
*1620 _1504_
*1621 _1505_
*1622 _1506_
*1623 _1507_
*1624 _1508_
*1625 _1509_
*1626 _1510_
*1627 _1511_
*1628 _1512_
*1629 _1513_
*1630 _1514_
*1631 _1515_
*1632 _1516_
*1633 _1517_
*1634 _1518_
*1635 _1519_
*1636 _1520_
*1637 _1521_
*1638 _1522_
*1639 _1523_
*1640 _1524_
*1641 _1525_
*1642 _1526_
*1643 _1527_
*1644 _1528_
*1645 _1529_
*1646 _1530_
*1647 _1531_
*1648 _1532_
*1649 _1533_
*1650 _1534_
*1651 _1535_
*1652 _1536_
*1653 _1537_
*1654 _1538_
*1655 _1539_
*1656 _1540_
*1657 _1541_
*1658 _1542_
*1659 _1543_
*1660 _1544_
*1661 _1545_
*1662 _1546_
*1663 _1547_
*1664 _1548_
*1665 _1549_
*1666 _1550_
*1667 _1551_
*1668 _1552_
*1669 _1553_
*1670 _1554_
*1671 _1555_
*1672 _1556_
*1673 _1557_
*1674 _1558_
*1675 _1559_
*1676 _1560_
*1677 _1561_
*1678 _1562_
*1679 _1563_
*1680 _1564_
*1681 _1565_
*1682 _1566_
*1683 _1567_
*1684 _1568_
*1685 _1569_
*1686 _1570_
*1687 _1571_
*1688 _1572_
*1689 _1573_
*1690 _1574_
*1691 _1575_
*1692 _1576_
*1693 _1577_
*1694 _1578_
*1695 _1579_
*1696 _1580_
*1697 _1581_
*1698 _1582_
*1699 _1583_
*1700 _1584_
*1701 _1585_
*1702 _1586_
*1703 _1587_
*1704 _1588_
*1705 _1589_
*1706 _1590_
*1707 _1591_
*1708 _1592_
*1709 _1593_
*1710 _1594_
*1711 _1595_
*1712 _1596_
*1713 _1597_
*1714 _1598_
*1715 _1599_
*1716 _1600_
*1717 _1601_
*1718 _1602_
*1719 _1603_
*1720 a_r0\[0\]
*1721 a_r0\[1\]
*1722 a_r1\[0\]
*1723 a_r1\[1\]
*1724 a_r1\[2\]
*1725 a_r2\[0\]
*1726 a_r2\[1\]
*1727 a_r2\[2\]
*1728 a_r3\[0\]
*1729 a_r3\[1\]
*1730 a_r3\[2\]
*1731 a_r3\[3\]
*1732 b_r0\[0\]
*1733 b_r0\[1\]
*1734 b_r1\[0\]
*1735 b_r1\[1\]
*1736 b_r1\[2\]
*1737 b_r2\[0\]
*1738 b_r2\[1\]
*1739 b_r2\[2\]
*1740 b_r3\[0\]
*1741 b_r3\[1\]
*1742 b_r3\[2\]
*1743 b_r3\[3\]
*1744 clknet_0_clk
*1745 clknet_3_0__leaf_clk
*1746 clknet_3_1__leaf_clk
*1747 clknet_3_2__leaf_clk
*1748 clknet_3_3__leaf_clk
*1749 clknet_3_4__leaf_clk
*1750 clknet_3_5__leaf_clk
*1751 clknet_3_6__leaf_clk
*1752 clknet_3_7__leaf_clk
*1753 net1
*1754 net10
*1755 net100
*1756 net101
*1757 net102
*1758 net103
*1759 net104
*1760 net105
*1761 net106
*1762 net107
*1763 net108
*1764 net11
*1765 net111
*1766 net112
*1767 net113
*1768 net114
*1769 net115
*1770 net116
*1771 net117
*1772 net118
*1773 net119
*1774 net12
*1775 net120
*1776 net121
*1777 net122
*1778 net123
*1779 net124
*1780 net125
*1781 net126
*1782 net127
*1783 net128
*1784 net129
*1785 net13
*1786 net130
*1787 net131
*1788 net132
*1789 net133
*1790 net134
*1791 net135
*1792 net136
*1793 net137
*1794 net14
*1795 net146
*1796 net147
*1797 net15
*1798 net156
*1799 net157
*1800 net16
*1801 net17
*1802 net170
*1803 net175
*1804 net176
*1805 net177
*1806 net178
*1807 net179
*1808 net18
*1809 net180
*1810 net181
*1811 net182
*1812 net183
*1813 net184
*1814 net185
*1815 net187
*1816 net188
*1817 net189
*1818 net19
*1819 net190
*1820 net191
*1821 net192
*1822 net193
*1823 net194
*1824 net195
*1825 net196
*1826 net197
*1827 net198
*1828 net199
*1829 net2
*1830 net20
*1831 net200
*1832 net201
*1833 net202
*1834 net203
*1835 net204
*1836 net205
*1837 net206
*1838 net21
*1839 net218
*1840 net219
*1841 net22
*1842 net23
*1843 net24
*1844 net25
*1845 net258
*1846 net259
*1847 net26
*1848 net260
*1849 net261
*1850 net262
*1851 net263
*1852 net264
*1853 net265
*1854 net266
*1855 net267
*1856 net268
*1857 net269
*1858 net27
*1859 net270
*1860 net271
*1861 net272
*1862 net273
*1863 net274
*1864 net275
*1865 net276
*1866 net277
*1867 net278
*1868 net279
*1869 net28
*1870 net280
*1871 net281
*1872 net282
*1873 net283
*1874 net29
*1875 net293
*1876 net294
*1877 net295
*1878 net296
*1879 net297
*1880 net298
*1881 net299
*1882 net3
*1883 net30
*1884 net300
*1885 net301
*1886 net302
*1887 net303
*1888 net304
*1889 net308
*1890 net309
*1891 net31
*1892 net310
*1893 net311
*1894 net312
*1895 net313
*1896 net314
*1897 net315
*1898 net316
*1899 net317
*1900 net318
*1901 net319
*1902 net32
*1903 net320
*1904 net321
*1905 net322
*1906 net323
*1907 net324
*1908 net325
*1909 net326
*1910 net327
*1911 net328
*1912 net329
*1913 net33
*1914 net34
*1915 net35
*1916 net36
*1917 net37
*1918 net38
*1919 net39
*1920 net4
*1921 net40
*1922 net41
*1923 net42
*1924 net43
*1925 net44
*1926 net45
*1927 net46
*1928 net47
*1929 net48
*1930 net49
*1931 net5
*1932 net50
*1933 net51
*1934 net52
*1935 net53
*1936 net54
*1937 net55
*1938 net56
*1939 net57
*1940 net58
*1941 net59
*1942 net6
*1943 net60
*1944 net61
*1945 net62
*1946 net63
*1947 net64
*1948 net7
*1949 net77
*1950 net78
*1951 net79
*1952 net8
*1953 net80
*1954 net81
*1955 net82
*1956 net83
*1957 net84
*1958 net85
*1959 net86
*1960 net87
*1961 net88
*1962 net89
*1963 net9
*1964 net90
*1965 net91
*1966 net92
*1967 net93
*1968 net94
*1969 net95
*1970 net96
*1971 net97
*1972 net98
*1973 net99
*1974 u_crt\.r0\[0\]
*1975 u_crt\.r0\[1\]
*1976 u_crt\.r1\[0\]
*1977 u_crt\.r1\[1\]
*1978 u_crt\.r1\[2\]
*1979 u_crt\.r2\[0\]
*1980 u_crt\.r2\[1\]
*1981 u_crt\.r2\[2\]
*1982 u_crt\.r3\[0\]
*1983 u_crt\.r3\[1\]
*1984 u_crt\.r3\[2\]
*1985 u_crt\.r3\[3\]
*1986 u_crt\.start_d
*1987 u_slice0\.start_d
*1988 ANTENNA_1
*1989 ANTENNA_2
*1990 ANTENNA__1606__A
*1991 ANTENNA__1608__A
*1992 ANTENNA__1609__A
*1993 ANTENNA__1610__A
*1994 ANTENNA__1611__A
*1995 ANTENNA__1612__A
*1996 ANTENNA__1613__A
*1997 ANTENNA__1615__A
*1998 ANTENNA__1616__A
*1999 ANTENNA__1622__A
*2000 ANTENNA__1623__A
*2001 ANTENNA__1623__Y
*2002 ANTENNA__1624__A
*2003 ANTENNA__1625__A
*2004 ANTENNA__1626__A
*2005 ANTENNA__1627__A
*2006 ANTENNA__1628__A
*2007 ANTENNA__1629__A
*2008 ANTENNA__1630__X
*2009 ANTENNA__1631__A
*2010 ANTENNA__1632__X
*2011 ANTENNA__1633__A
*2012 ANTENNA__1633__Y
*2013 ANTENNA__1634__X
*2014 ANTENNA__1635__A
*2015 ANTENNA__1635__Y
*2016 ANTENNA__1636__X
*2017 ANTENNA__1638__A
*2018 ANTENNA__1639__B
*2019 ANTENNA__1640__A2
*2020 ANTENNA__1642__B
*2021 ANTENNA__1648__A
*2022 ANTENNA__1649__A
*2023 ANTENNA__1650__A
*2024 ANTENNA__1651__B
*2025 ANTENNA__1653__C1
*2026 ANTENNA__1654__A3
*2027 ANTENNA__1657__A1
*2028 ANTENNA__1659__A
*2029 ANTENNA__1677__B
*2030 ANTENNA__1682__A
*2031 ANTENNA__1685__B1
*2032 ANTENNA__1686__A
*2033 ANTENNA__1689__C1
*2034 ANTENNA__1698__B1
*2035 ANTENNA__1702__A
*2036 ANTENNA__1705__B1
*2037 ANTENNA__1706__A
*2038 ANTENNA__1713__A1
*2039 ANTENNA__1716__A1
*2040 ANTENNA__1717__A
*2041 ANTENNA__1718__A1
*2042 ANTENNA__1720__A
*2043 ANTENNA__1721__A
*2044 ANTENNA__1723__A
*2045 ANTENNA__1724__A
*2046 ANTENNA__1725__A
*2047 ANTENNA__1726__A
*2048 ANTENNA__1727__A2
*2049 ANTENNA__1729__B1
*2050 ANTENNA__1730__A2
*2051 ANTENNA__1731__A1
*2052 ANTENNA__1733__A2
*2053 ANTENNA__1734__A2
*2054 ANTENNA__1735__B
*2055 ANTENNA__1736__A1
*2056 ANTENNA__1737__A2
*2057 ANTENNA__1738__A
*2058 ANTENNA__1739__A
*2059 ANTENNA__1742__B1
*2060 ANTENNA__1750__A
*2061 ANTENNA__1754__A2
*2062 ANTENNA__1765__B1
*2063 ANTENNA__1766__A
*2064 ANTENNA__1768__A1
*2065 ANTENNA__1769__A1
*2066 ANTENNA__1769__B1
*2067 ANTENNA__1770__A
*2068 ANTENNA__1778__B
*2069 ANTENNA__1781__B1
*2070 ANTENNA__1782__A1
*2071 ANTENNA__1783__A
*2072 ANTENNA__1784__A1
*2073 ANTENNA__1784__B1
*2074 ANTENNA__1791__A1
*2075 ANTENNA__1794__B
*2076 ANTENNA__1800__A1
*2077 ANTENNA__1804__A1
*2078 ANTENNA__1806__B
*2079 ANTENNA__1807__B
*2080 ANTENNA__1808__A1
*2081 ANTENNA__1809__A1
*2082 ANTENNA__1811__A
*2083 ANTENNA__1812__B
*2084 ANTENNA__1813__B
*2085 ANTENNA__1819__A
*2086 ANTENNA__1821__A
*2087 ANTENNA__1822__A
*2088 ANTENNA__1823__B
*2089 ANTENNA__1827__A
*2090 ANTENNA__1828__B
*2091 ANTENNA__1829__B
*2092 ANTENNA__1834__B
*2093 ANTENNA__1835__A1
*2094 ANTENNA__1835__B1
*2095 ANTENNA__1836__B1
*2096 ANTENNA__1836__B2
*2097 ANTENNA__1838__S
*2098 ANTENNA__1840__A
*2099 ANTENNA__1841__A2
*2100 ANTENNA__1844__A2
*2101 ANTENNA__1847__C
*2102 ANTENNA__1848__A1
*2103 ANTENNA__1850__B1
*2104 ANTENNA__1852__B1
*2105 ANTENNA__1853__A1
*2106 ANTENNA__1855__B1
*2107 ANTENNA__1856__A1
*2108 ANTENNA__1857__A1
*2109 ANTENNA__1858__A1
*2110 ANTENNA__1859__B1
*2111 ANTENNA__1860__A1
*2112 ANTENNA__1862__B1
*2113 ANTENNA__1864__A1
*2114 ANTENNA__1865__B1
*2115 ANTENNA__1867__A1
*2116 ANTENNA__1874__B1
*2117 ANTENNA__1875__A1
*2118 ANTENNA__1876__S
*2119 ANTENNA__1877__B1
*2120 ANTENNA__1878__A1
*2121 ANTENNA__1880__A1
*2122 ANTENNA__1881__S
*2123 ANTENNA__1884__B1
*2124 ANTENNA__1885__A1
*2125 ANTENNA__1886__A1
*2126 ANTENNA__1887__A
*2127 ANTENNA__1890__S
*2128 ANTENNA__1892__S
*2129 ANTENNA__1893__B
*2130 ANTENNA__1894__A2_N
*2131 ANTENNA__1894__B1
*2132 ANTENNA__1898__B1
*2133 ANTENNA__1899__B1
*2134 ANTENNA__1936__A1
*2135 ANTENNA__1937__A1
*2136 ANTENNA__1938__A1
*2137 ANTENNA__1940__A1
*2138 ANTENNA__1941__A
*2139 ANTENNA__1942__A
*2140 ANTENNA__1944__A
*2141 ANTENNA__1945__A1
*2142 ANTENNA__1945__B2
*2143 ANTENNA__1954__A1
*2144 ANTENNA__1955__A
*2145 ANTENNA__1958__A1
*2146 ANTENNA__1960__B1
*2147 ANTENNA__1961__A1_N
*2148 ANTENNA__1963__A
*2149 ANTENNA__1964__A1
*2150 ANTENNA__1968__A
*2151 ANTENNA__1973__B1
*2152 ANTENNA__1975__A1
*2153 ANTENNA__1978__A1
*2154 ANTENNA__1979__A
*2155 ANTENNA__1980__A1
*2156 ANTENNA__1984__A
*2157 ANTENNA__1987__S
*2158 ANTENNA__1989__S
*2159 ANTENNA__1992__A2
*2160 ANTENNA__2024__A
*2161 ANTENNA__2031__A
*2162 ANTENNA__2032__A
*2163 ANTENNA__2036__A1
*2164 ANTENNA__2037__B1
*2165 ANTENNA__2038__A1
*2166 ANTENNA__2039__A1
*2167 ANTENNA__2039__B1
*2168 ANTENNA__2046__A1
*2169 ANTENNA__2047__A
*2170 ANTENNA__2049__A
*2171 ANTENNA__2050__A1_N
*2172 ANTENNA__2052__B1
*2173 ANTENNA__2053__A1
*2174 ANTENNA__2054__A