* NGSPICE file created from rns_top_crt.ext - technology: sky130A

* Black-box entry subcircuit for sky130_fd_sc_hd__diode_2 abstract view
.subckt sky130_fd_sc_hd__diode_2 DIODE VGND VNB VPB VPWR
.ends

* Black-box entry subcircuit for sky130_fd_sc_hd__decap_6 abstract view
.subckt sky130_fd_sc_hd__decap_6 VGND VNB VPB VPWR
.ends

* Black-box entry subcircuit for sky130_fd_sc_hd__fill_2 abstract view
.subckt sky130_fd_sc_hd__fill_2 VGND VNB VPB VPWR
.ends

* Black-box entry subcircuit for sky130_fd_sc_hd__tapvpwrvgnd_1 abstract view
.subckt sky130_fd_sc_hd__tapvpwrvgnd_1 VGND VPWR
.ends

* Black-box entry subcircuit for sky130_fd_sc_hd__fill_1 abstract view
.subckt sky130_fd_sc_hd__fill_1 VGND VNB VPB VPWR
.ends

* Black-box entry subcircuit for sky130_ef_sc_hd__decap_12 abstract view
.subckt sky130_ef_sc_hd__decap_12 VPWR VGND VPB VNB
.ends

* Black-box entry subcircuit for sky130_fd_sc_hd__a31o_1 abstract view
.subckt sky130_fd_sc_hd__a31o_1 A1 A2 A3 B1 VGND VNB VPB VPWR X
.ends

* Black-box entry subcircuit for sky130_fd_sc_hd__a21oi_1 abstract view
.subckt sky130_fd_sc_hd__a21oi_1 A1 A2 B1 VGND VNB VPB VPWR Y
.ends

* Black-box entry subcircuit for sky130_fd_sc_hd__and2_1 abstract view
.subckt sky130_fd_sc_hd__and2_1 A B VGND VNB VPB VPWR X
.ends

* Black-box entry subcircuit for sky130_fd_sc_hd__nand2_1 abstract view
.subckt sky130_fd_sc_hd__nand2_1 A B VGND VNB VPB VPWR Y
.ends

* Black-box entry subcircuit for sky130_fd_sc_hd__decap_8 abstract view
.subckt sky130_fd_sc_hd__decap_8 VGND VNB VPB VPWR
.ends

* Black-box entry subcircuit for sky130_fd_sc_hd__decap_4 abstract view
.subckt sky130_fd_sc_hd__decap_4 VGND VNB VPB VPWR
.ends

* Black-box entry subcircuit for sky130_fd_sc_hd__xnor2_1 abstract view
.subckt sky130_fd_sc_hd__xnor2_1 A B VGND VNB VPB VPWR Y
.ends

* Black-box entry subcircuit for sky130_fd_sc_hd__xor2_1 abstract view
.subckt sky130_fd_sc_hd__xor2_1 A B VGND VNB VPB VPWR X
.ends

* Black-box entry subcircuit for sky130_fd_sc_hd__inv_2 abstract view
.subckt sky130_fd_sc_hd__inv_2 A VGND VNB VPB VPWR Y
.ends

* Black-box entry subcircuit for sky130_fd_sc_hd__a21oi_2 abstract view
.subckt sky130_fd_sc_hd__a21oi_2 A1 A2 B1 VGND VNB VPB VPWR Y
.ends

* Black-box entry subcircuit for sky130_fd_sc_hd__nor2_1 abstract view
.subckt sky130_fd_sc_hd__nor2_1 A B VGND VNB VPB VPWR Y
.ends

* Black-box entry subcircuit for sky130_fd_sc_hd__mux2_1 abstract view
.subckt sky130_fd_sc_hd__mux2_1 A0 A1 S VGND VNB VPB VPWR X
.ends

* Black-box entry subcircuit for sky130_fd_sc_hd__a21o_1 abstract view
.subckt sky130_fd_sc_hd__a21o_1 A1 A2 B1 VGND VNB VPB VPWR X
.ends

* Black-box entry subcircuit for sky130_fd_sc_hd__a32o_1 abstract view
.subckt sky130_fd_sc_hd__a32o_1 A1 A2 A3 B1 B2 VGND VNB VPB VPWR X
.ends

* Black-box entry subcircuit for sky130_fd_sc_hd__decap_3 abstract view
.subckt sky130_fd_sc_hd__decap_3 VGND VNB VPB VPWR
.ends

* Black-box entry subcircuit for sky130_fd_sc_hd__or3_1 abstract view
.subckt sky130_fd_sc_hd__or3_1 A B C VGND VNB VPB VPWR X
.ends

* Black-box entry subcircuit for sky130_fd_sc_hd__o22ai_2 abstract view
.subckt sky130_fd_sc_hd__o22ai_2 A1 A2 B1 B2 VGND VNB VPB VPWR Y
.ends

* Black-box entry subcircuit for sky130_fd_sc_hd__and3_1 abstract view
.subckt sky130_fd_sc_hd__and3_1 A B C VGND VNB VPB VPWR X
.ends

* Black-box entry subcircuit for sky130_fd_sc_hd__dfrtp_1 abstract view
.subckt sky130_fd_sc_hd__dfrtp_1 CLK D RESET_B VGND VNB VPB VPWR Q
.ends

* Black-box entry subcircuit for sky130_fd_sc_hd__o21ai_1 abstract view
.subckt sky130_fd_sc_hd__o21ai_1 A1 A2 B1 VGND VNB VPB VPWR Y
.ends

* Black-box entry subcircuit for sky130_fd_sc_hd__o21bai_4 abstract view
.subckt sky130_fd_sc_hd__o21bai_4 A1 A2 B1_N VGND VNB VPB VPWR Y
.ends

* Black-box entry subcircuit for sky130_fd_sc_hd__buf_1 abstract view
.subckt sky130_fd_sc_hd__buf_1 A VGND VNB VPB VPWR X
.ends

* Black-box entry subcircuit for sky130_fd_sc_hd__o21a_1 abstract view
.subckt sky130_fd_sc_hd__o21a_1 A1 A2 B1 VGND VNB VPB VPWR X
.ends

* Black-box entry subcircuit for sky130_fd_sc_hd__a22o_1 abstract view
.subckt sky130_fd_sc_hd__a22o_1 A1 A2 B1 B2 VGND VNB VPB VPWR X
.ends

* Black-box entry subcircuit for sky130_fd_sc_hd__nand2b_1 abstract view
.subckt sky130_fd_sc_hd__nand2b_1 A_N B VGND VNB VPB VPWR Y
.ends

* Black-box entry subcircuit for sky130_fd_sc_hd__or2_1 abstract view
.subckt sky130_fd_sc_hd__or2_1 A B VGND VNB VPB VPWR X
.ends

* Black-box entry subcircuit for sky130_fd_sc_hd__clkbuf_16 abstract view
.subckt sky130_fd_sc_hd__clkbuf_16 A VGND VNB VPB VPWR X
.ends

* Black-box entry subcircuit for sky130_fd_sc_hd__o2bb2a_1 abstract view
.subckt sky130_fd_sc_hd__o2bb2a_1 A1_N A2_N B1 B2 VGND VNB VPB VPWR X
.ends

* Black-box entry subcircuit for sky130_fd_sc_hd__nand3_1 abstract view
.subckt sky130_fd_sc_hd__nand3_1 A B C VGND VNB VPB VPWR Y
.ends

* Black-box entry subcircuit for sky130_fd_sc_hd__nor3b_1 abstract view
.subckt sky130_fd_sc_hd__nor3b_1 A B C_N VGND VNB VPB VPWR Y
.ends

* Black-box entry subcircuit for sky130_fd_sc_hd__a21bo_1 abstract view
.subckt sky130_fd_sc_hd__a21bo_1 A1 A2 B1_N VGND VNB VPB VPWR X
.ends

* Black-box entry subcircuit for sky130_fd_sc_hd__o211ai_1 abstract view
.subckt sky130_fd_sc_hd__o211ai_1 A1 A2 B1 C1 VGND VNB VPB VPWR Y
.ends

* Black-box entry subcircuit for sky130_fd_sc_hd__a311o_1 abstract view
.subckt sky130_fd_sc_hd__a311o_1 A1 A2 A3 B1 C1 VGND VNB VPB VPWR X
.ends

* Black-box entry subcircuit for sky130_fd_sc_hd__o211a_1 abstract view
.subckt sky130_fd_sc_hd__o211a_1 A1 A2 B1 C1 VGND VNB VPB VPWR X
.ends

* Black-box entry subcircuit for sky130_fd_sc_hd__and3b_1 abstract view
.subckt sky130_fd_sc_hd__and3b_1 A_N B C VGND VNB VPB VPWR X
.ends

* Black-box entry subcircuit for sky130_fd_sc_hd__dfrtp_4 abstract view
.subckt sky130_fd_sc_hd__dfrtp_4 CLK D RESET_B VGND VNB VPB VPWR Q
.ends

* Black-box entry subcircuit for sky130_fd_sc_hd__dfrtp_2 abstract view
.subckt sky130_fd_sc_hd__dfrtp_2 CLK D RESET_B VGND VNB VPB VPWR Q
.ends

* Black-box entry subcircuit for sky130_fd_sc_hd__and2b_1 abstract view
.subckt sky130_fd_sc_hd__and2b_1 A_N B VGND VNB VPB VPWR X
.ends

* Black-box entry subcircuit for sky130_fd_sc_hd__o21ba_1 abstract view
.subckt sky130_fd_sc_hd__o21ba_1 A1 A2 B1_N VGND VNB VPB VPWR X
.ends

* Black-box entry subcircuit for sky130_fd_sc_hd__o21a_2 abstract view
.subckt sky130_fd_sc_hd__o21a_2 A1 A2 B1 VGND VNB VPB VPWR X
.ends

* Black-box entry subcircuit for sky130_fd_sc_hd__a21boi_1 abstract view
.subckt sky130_fd_sc_hd__a21boi_1 A1 A2 B1_N VGND VNB VPB VPWR Y
.ends

* Black-box entry subcircuit for sky130_fd_sc_hd__nand2_2 abstract view
.subckt sky130_fd_sc_hd__nand2_2 A B VGND VNB VPB VPWR Y
.ends

* Black-box entry subcircuit for sky130_fd_sc_hd__and4_1 abstract view
.subckt sky130_fd_sc_hd__and4_1 A B C D VGND VNB VPB VPWR X
.ends

* Black-box entry subcircuit for sky130_fd_sc_hd__o22a_1 abstract view
.subckt sky130_fd_sc_hd__o22a_1 A1 A2 B1 B2 VGND VNB VPB VPWR X
.ends

* Black-box entry subcircuit for sky130_fd_sc_hd__xor2_2 abstract view
.subckt sky130_fd_sc_hd__xor2_2 A B VGND VNB VPB VPWR X
.ends

* Black-box entry subcircuit for sky130_fd_sc_hd__a2bb2o_1 abstract view
.subckt sky130_fd_sc_hd__a2bb2o_1 A1_N A2_N B1 B2 VGND VNB VPB VPWR X
.ends

* Black-box entry subcircuit for sky130_fd_sc_hd__xnor2_2 abstract view
.subckt sky130_fd_sc_hd__xnor2_2 A B VGND VNB VPB VPWR Y
.ends

* Black-box entry subcircuit for sky130_fd_sc_hd__nand2b_4 abstract view
.subckt sky130_fd_sc_hd__nand2b_4 A_N B VGND VNB VPB VPWR Y
.ends

* Black-box entry subcircuit for sky130_fd_sc_hd__o31a_1 abstract view
.subckt sky130_fd_sc_hd__o31a_1 A1 A2 A3 B1 VGND VNB VPB VPWR X
.ends

* Black-box entry subcircuit for sky130_fd_sc_hd__o21ai_2 abstract view
.subckt sky130_fd_sc_hd__o21ai_2 A1 A2 B1 VGND VNB VPB VPWR Y
.ends

* Black-box entry subcircuit for sky130_fd_sc_hd__inv_8 abstract view
.subckt sky130_fd_sc_hd__inv_8 A VGND VNB VPB VPWR Y
.ends

* Black-box entry subcircuit for sky130_fd_sc_hd__or3_4 abstract view
.subckt sky130_fd_sc_hd__or3_4 A B C VGND VNB VPB VPWR X
.ends

* Black-box entry subcircuit for sky130_fd_sc_hd__a211oi_1 abstract view
.subckt sky130_fd_sc_hd__a211oi_1 A1 A2 B1 C1 VGND VNB VPB VPWR Y
.ends

* Black-box entry subcircuit for sky130_fd_sc_hd__a211o_1 abstract view
.subckt sky130_fd_sc_hd__a211o_1 A1 A2 B1 C1 VGND VNB VPB VPWR X
.ends

* Black-box entry subcircuit for sky130_fd_sc_hd__or3b_1 abstract view
.subckt sky130_fd_sc_hd__or3b_1 A B C_N VGND VNB VPB VPWR X
.ends

* Black-box entry subcircuit for sky130_fd_sc_hd__inv_12 abstract view
.subckt sky130_fd_sc_hd__inv_12 A VGND VNB VPB VPWR Y
.ends

* Black-box entry subcircuit for sky130_fd_sc_hd__o2bb2ai_1 abstract view
.subckt sky130_fd_sc_hd__o2bb2ai_1 A1_N A2_N B1 B2 VGND VNB VPB VPWR Y
.ends

* Black-box entry subcircuit for sky130_fd_sc_hd__clkinvlp_4 abstract view
.subckt sky130_fd_sc_hd__clkinvlp_4 A VGND VNB VPB VPWR Y
.ends

* Black-box entry subcircuit for sky130_fd_sc_hd__or3_2 abstract view
.subckt sky130_fd_sc_hd__or3_2 A B C VGND VNB VPB VPWR X
.ends

* Black-box entry subcircuit for sky130_fd_sc_hd__a2bb2o_2 abstract view
.subckt sky130_fd_sc_hd__a2bb2o_2 A1_N A2_N B1 B2 VGND VNB VPB VPWR X
.ends

* Black-box entry subcircuit for sky130_fd_sc_hd__o311a_1 abstract view
.subckt sky130_fd_sc_hd__o311a_1 A1 A2 A3 B1 C1 VGND VNB VPB VPWR X
.ends

* Black-box entry subcircuit for sky130_fd_sc_hd__o32a_1 abstract view
.subckt sky130_fd_sc_hd__o32a_1 A1 A2 A3 B1 B2 VGND VNB VPB VPWR X
.ends

* Black-box entry subcircuit for sky130_fd_sc_hd__clkinv_4 abstract view
.subckt sky130_fd_sc_hd__clkinv_4 A VGND VNB VPB VPWR Y
.ends

* Black-box entry subcircuit for sky130_fd_sc_hd__or4b_1 abstract view
.subckt sky130_fd_sc_hd__or4b_1 A B C D_N VGND VNB VPB VPWR X
.ends

* Black-box entry subcircuit for sky130_fd_sc_hd__a41o_1 abstract view
.subckt sky130_fd_sc_hd__a41o_1 A1 A2 A3 A4 B1 VGND VNB VPB VPWR X
.ends

* Black-box entry subcircuit for sky130_fd_sc_hd__and2b_4 abstract view
.subckt sky130_fd_sc_hd__and2b_4 A_N B VGND VNB VPB VPWR X
.ends

* Black-box entry subcircuit for sky130_fd_sc_hd__a221o_1 abstract view
.subckt sky130_fd_sc_hd__a221o_1 A1 A2 B1 B2 C1 VGND VNB VPB VPWR X
.ends

* Black-box entry subcircuit for sky130_fd_sc_hd__o221a_1 abstract view
.subckt sky130_fd_sc_hd__o221a_1 A1 A2 B1 B2 C1 VGND VNB VPB VPWR X
.ends

* Black-box entry subcircuit for sky130_fd_sc_hd__clkbuf_1 abstract view
.subckt sky130_fd_sc_hd__clkbuf_1 A VGND VNB VPB VPWR X
.ends

* Black-box entry subcircuit for sky130_fd_sc_hd__a22oi_1 abstract view
.subckt sky130_fd_sc_hd__a22oi_1 A1 A2 B1 B2 VGND VNB VPB VPWR Y
.ends

* Black-box entry subcircuit for sky130_fd_sc_hd__or2_4 abstract view
.subckt sky130_fd_sc_hd__or2_4 A B VGND VNB VPB VPWR X
.ends

* Black-box entry subcircuit for sky130_fd_sc_hd__o31ai_2 abstract view
.subckt sky130_fd_sc_hd__o31ai_2 A1 A2 A3 B1 VGND VNB VPB VPWR Y
.ends

* Black-box entry subcircuit for sky130_fd_sc_hd__a31oi_1 abstract view
.subckt sky130_fd_sc_hd__a31oi_1 A1 A2 A3 B1 VGND VNB VPB VPWR Y
.ends

* Black-box entry subcircuit for sky130_fd_sc_hd__o2111a_1 abstract view
.subckt sky130_fd_sc_hd__o2111a_1 A1 A2 B1 C1 D1 VGND VNB VPB VPWR X
.ends

* Black-box entry subcircuit for sky130_fd_sc_hd__nor2_4 abstract view
.subckt sky130_fd_sc_hd__nor2_4 A B VGND VNB VPB VPWR Y
.ends

* Black-box entry subcircuit for sky130_fd_sc_hd__o21bai_2 abstract view
.subckt sky130_fd_sc_hd__o21bai_2 A1 A2 B1_N VGND VNB VPB VPWR Y
.ends

* Black-box entry subcircuit for sky130_fd_sc_hd__or3b_4 abstract view
.subckt sky130_fd_sc_hd__or3b_4 A B C_N VGND VNB VPB VPWR X
.ends

* Black-box entry subcircuit for sky130_fd_sc_hd__nor3_1 abstract view
.subckt sky130_fd_sc_hd__nor3_1 A B C VGND VNB VPB VPWR Y
.ends

* Black-box entry subcircuit for sky130_fd_sc_hd__a21oi_4 abstract view
.subckt sky130_fd_sc_hd__a21oi_4 A1 A2 B1 VGND VNB VPB VPWR Y
.ends

* Black-box entry subcircuit for sky130_fd_sc_hd__o211ai_2 abstract view
.subckt sky130_fd_sc_hd__o211ai_2 A1 A2 B1 C1 VGND VNB VPB VPWR Y
.ends

* Black-box entry subcircuit for sky130_fd_sc_hd__inv_6 abstract view
.subckt sky130_fd_sc_hd__inv_6 A VGND VNB VPB VPWR Y
.ends

* Black-box entry subcircuit for sky130_fd_sc_hd__and4b_1 abstract view
.subckt sky130_fd_sc_hd__and4b_1 A_N B C D VGND VNB VPB VPWR X
.ends

* Black-box entry subcircuit for sky130_fd_sc_hd__nor2_2 abstract view
.subckt sky130_fd_sc_hd__nor2_2 A B VGND VNB VPB VPWR Y
.ends

* Black-box entry subcircuit for sky130_fd_sc_hd__o22ai_1 abstract view
.subckt sky130_fd_sc_hd__o22ai_1 A1 A2 B1 B2 VGND VNB VPB VPWR Y
.ends

* Black-box entry subcircuit for sky130_fd_sc_hd__a31oi_4 abstract view
.subckt sky130_fd_sc_hd__a31oi_4 A1 A2 A3 B1 VGND VNB VPB VPWR Y
.ends

* Black-box entry subcircuit for sky130_fd_sc_hd__or4bb_1 abstract view
.subckt sky130_fd_sc_hd__or4bb_1 A B C_N D_N VGND VNB VPB VPWR X
.ends

* Black-box entry subcircuit for sky130_fd_sc_hd__dlymetal6s2s_1 abstract view
.subckt sky130_fd_sc_hd__dlymetal6s2s_1 A VGND VNB VPB VPWR X
.ends

* Black-box entry subcircuit for sky130_fd_sc_hd__xor2_4 abstract view
.subckt sky130_fd_sc_hd__xor2_4 A B VGND VNB VPB VPWR X
.ends

* Black-box entry subcircuit for sky130_fd_sc_hd__nand2_4 abstract view
.subckt sky130_fd_sc_hd__nand2_4 A B VGND VNB VPB VPWR Y
.ends

* Black-box entry subcircuit for sky130_fd_sc_hd__o31ai_1 abstract view
.subckt sky130_fd_sc_hd__o31ai_1 A1 A2 A3 B1 VGND VNB VPB VPWR Y
.ends

* Black-box entry subcircuit for sky130_fd_sc_hd__or2_2 abstract view
.subckt sky130_fd_sc_hd__or2_2 A B VGND VNB VPB VPWR X
.ends

* Black-box entry subcircuit for sky130_fd_sc_hd__nand3_2 abstract view
.subckt sky130_fd_sc_hd__nand3_2 A B C VGND VNB VPB VPWR Y
.ends

* Black-box entry subcircuit for sky130_fd_sc_hd__nand4_2 abstract view
.subckt sky130_fd_sc_hd__nand4_2 A B C D VGND VNB VPB VPWR Y
.ends

* Black-box entry subcircuit for sky130_fd_sc_hd__a22oi_2 abstract view
.subckt sky130_fd_sc_hd__a22oi_2 A1 A2 B1 B2 VGND VNB VPB VPWR Y
.ends

* Black-box entry subcircuit for sky130_fd_sc_hd__o21bai_1 abstract view
.subckt sky130_fd_sc_hd__o21bai_1 A1 A2 B1_N VGND VNB VPB VPWR Y
.ends

* Black-box entry subcircuit for sky130_fd_sc_hd__nand4_1 abstract view
.subckt sky130_fd_sc_hd__nand4_1 A B C D VGND VNB VPB VPWR Y
.ends

* Black-box entry subcircuit for sky130_fd_sc_hd__a311oi_1 abstract view
.subckt sky130_fd_sc_hd__a311oi_1 A1 A2 A3 B1 C1 VGND VNB VPB VPWR Y
.ends

* Black-box entry subcircuit for sky130_fd_sc_hd__and3b_4 abstract view
.subckt sky130_fd_sc_hd__and3b_4 A_N B C VGND VNB VPB VPWR X
.ends

* Black-box entry subcircuit for sky130_fd_sc_hd__or4_1 abstract view
.subckt sky130_fd_sc_hd__or4_1 A B C D VGND VNB VPB VPWR X
.ends

* Black-box entry subcircuit for sky130_fd_sc_hd__a31oi_2 abstract view
.subckt sky130_fd_sc_hd__a31oi_2 A1 A2 A3 B1 VGND VNB VPB VPWR Y
.ends

* Black-box entry subcircuit for sky130_fd_sc_hd__nor4_1 abstract view
.subckt sky130_fd_sc_hd__nor4_1 A B C D VGND VNB VPB VPWR Y
.ends

* Black-box entry subcircuit for sky130_fd_sc_hd__a221oi_4 abstract view
.subckt sky130_fd_sc_hd__a221oi_4 A1 A2 B1 B2 C1 VGND VNB VPB VPWR Y
.ends

.subckt rns_top_crt A_in[0] A_in[10] A_in[11] A_in[12] A_in[13] A_in[14] A_in[15]
+ A_in[1] A_in[2] A_in[3] A_in[4] A_in[5] A_in[6] A_in[7] A_in[8] A_in[9] B_in[0]
+ B_in[10] B_in[11] B_in[12] B_in[13] B_in[14] B_in[15] B_in[1] B_in[2] B_in[3] B_in[4]
+ B_in[5] B_in[6] B_in[7] B_in[8] B_in[9] Done Op_Sel[0] Op_Sel[1] Start VGND VPWR
+ X_out[0] X_out[10] X_out[11] X_out[12] X_out[13] X_out[14] X_out[15] X_out[1] X_out[2]
+ X_out[3] X_out[4] X_out[5] X_out[6] X_out[7] X_out[8] X_out[9] clk rst_n
XANTENNA__2439__B _0187_ VGND VGND VPWR VPWR sky130_fd_sc_hd__diode_2
XFILLER_67_553 VGND VGND VPWR VPWR sky130_fd_sc_hd__decap_6
XFILLER_39_233 VGND VGND VPWR VPWR sky130_fd_sc_hd__fill_2
XTAP_TAPCELL_ROW_124_2311 VGND VPWR sky130_fd_sc_hd__tapvpwrvgnd_1
XFILLER_95_895 VGND VGND VPWR VPWR sky130_fd_sc_hd__fill_1
XFILLER_82_501 VPWR VGND VPWR VGND sky130_ef_sc_hd__decap_12
X_3155_ _0801_ _0805_ _0827_ _0809_ VGND VGND VPWR VPWR _0843_ sky130_fd_sc_hd__a31o_1
XTAP_TAPCELL_ROW_124_2322 VGND VPWR sky130_fd_sc_hd__tapvpwrvgnd_1
X_2106_ _1357_ _1362_ B_reg\[11\] VGND VGND VPWR VPWR _1365_ sky130_fd_sc_hd__a21oi_1
XTAP_TAPCELL_ROW_38_935 VGND VPWR sky130_fd_sc_hd__tapvpwrvgnd_1
XTAP_TAPCELL_ROW_38_946 VGND VPWR sky130_fd_sc_hd__tapvpwrvgnd_1
X_3086_ _0754_ _0756_ VGND VGND VPWR VPWR _0774_ sky130_fd_sc_hd__and2_1
X_2037_ _1292_ _1298_ B_reg\[7\] VGND VGND VPWR VPWR _1299_ sky130_fd_sc_hd__a21oi_1
XFILLER_82_589 VPWR VGND VPWR VGND sky130_ef_sc_hd__decap_12
XFILLER_35_461 VPWR VGND VPWR VGND sky130_ef_sc_hd__decap_12
XFILLER_52_29 VPWR VGND VPWR VGND sky130_ef_sc_hd__decap_12
XFILLER_22_133 VGND VGND VPWR VPWR sky130_fd_sc_hd__decap_6
XTAP_TAPCELL_ROW_102_1963 VGND VPWR sky130_fd_sc_hd__tapvpwrvgnd_1
XFILLER_50_475 VGND VGND VPWR VPWR sky130_fd_sc_hd__fill_1
XFILLER_149_853 VPWR VGND VPWR VGND sky130_ef_sc_hd__decap_12
X_2939_ _0620_ _0626_ VGND VGND VPWR VPWR _0627_ sky130_fd_sc_hd__nand2_1
XFILLER_22_177 VPWR VGND VPWR VGND sky130_ef_sc_hd__decap_12
XFILLER_149_897 VPWR VGND VPWR VGND sky130_ef_sc_hd__decap_12
XFILLER_148_363 VGND VGND VPWR VPWR sky130_fd_sc_hd__fill_1
XFILLER_136_525 VGND VGND VPWR VPWR sky130_fd_sc_hd__decap_6
XTAP_TAPCELL_ROW_135_2484 VGND VPWR sky130_fd_sc_hd__tapvpwrvgnd_1
XFILLER_151_517 VPWR VGND VPWR VGND sky130_ef_sc_hd__decap_12
XFILLER_136_569 VPWR VGND VPWR VGND sky130_ef_sc_hd__decap_12
XTAP_TAPCELL_ROW_135_2495 VGND VPWR sky130_fd_sc_hd__tapvpwrvgnd_1
XFILLER_117_783 VGND VGND VPWR VPWR sky130_fd_sc_hd__fill_1
XFILLER_104_411 VGND VGND VPWR VPWR sky130_fd_sc_hd__decap_8
XFILLER_2_538 VPWR VGND VPWR VGND sky130_ef_sc_hd__decap_12
XFILLER_117_55 VGND VGND VPWR VPWR sky130_fd_sc_hd__fill_1
XFILLER_104_433 VPWR VGND VPWR VGND sky130_ef_sc_hd__decap_12
XFILLER_77_37 VGND VGND VPWR VPWR sky130_fd_sc_hd__fill_1
XFILLER_104_488 VPWR VGND VPWR VGND sky130_ef_sc_hd__decap_12
XFILLER_77_48 VGND VGND VPWR VPWR sky130_fd_sc_hd__decap_8
XFILLER_58_531 VGND VGND VPWR VPWR sky130_fd_sc_hd__fill_1
XFILLER_92_309 VPWR VGND VPWR VGND sky130_ef_sc_hd__decap_12
XFILLER_85_361 VPWR VGND VPWR VGND sky130_ef_sc_hd__decap_12
XFILLER_58_586 VGND VGND VPWR VPWR sky130_fd_sc_hd__fill_2
XFILLER_46_737 VPWR VGND VPWR VGND sky130_ef_sc_hd__decap_12
XFILLER_18_439 VPWR VGND VPWR VGND sky130_ef_sc_hd__decap_12
XFILLER_93_69 VPWR VGND VPWR VGND sky130_ef_sc_hd__decap_12
XANTENNA__3301__RESET_B net36 VGND VGND VPWR VPWR sky130_fd_sc_hd__diode_2
XANTENNA__3282__CLK clknet_3_1__leaf_clk VGND VGND VPWR VPWR sky130_fd_sc_hd__diode_2
XFILLER_26_41 VPWR VGND VPWR VGND sky130_ef_sc_hd__decap_12
XFILLER_61_729 VPWR VGND VPWR VGND sky130_ef_sc_hd__decap_12
XFILLER_54_792 VPWR VGND VPWR VGND sky130_ef_sc_hd__decap_12
XFILLER_14_601 VPWR VGND VPWR VGND sky130_ef_sc_hd__decap_12
XANTENNA__2642__A0 net33 VGND VGND VPWR VPWR sky130_fd_sc_hd__diode_2
XFILLER_13_111 VGND VGND VPWR VPWR sky130_fd_sc_hd__fill_1
XFILLER_14_645 VPWR VGND VPWR VGND sky130_ef_sc_hd__decap_12
XFILLER_26_85 VPWR VGND VPWR VGND sky130_ef_sc_hd__decap_12
XFILLER_9_137 VPWR VGND VPWR VGND sky130_ef_sc_hd__decap_12
XFILLER_41_497 VGND VGND VPWR VPWR sky130_fd_sc_hd__decap_6
XFILLER_139_385 VGND VGND VPWR VPWR sky130_fd_sc_hd__decap_6
XFILLER_127_503 VGND VGND VPWR VPWR sky130_fd_sc_hd__fill_1
XFILLER_6_811 VGND VGND VPWR VPWR sky130_fd_sc_hd__fill_1
XFILLER_115_709 VPWR VGND VPWR VGND sky130_ef_sc_hd__decap_12
XFILLER_5_365 VGND VGND VPWR VPWR sky130_fd_sc_hd__decap_6
XTAP_TAPCELL_ROW_75_1531 VGND VPWR sky130_fd_sc_hd__tapvpwrvgnd_1
XFILLER_123_753 VPWR VGND VPWR VGND sky130_ef_sc_hd__decap_12
XFILLER_107_293 VPWR VGND VPWR VGND sky130_ef_sc_hd__decap_12
XFILLER_123_797 VPWR VGND VPWR VGND sky130_ef_sc_hd__decap_12
XFILLER_96_637 VGND VGND VPWR VPWR sky130_fd_sc_hd__decap_6
XFILLER_95_125 VPWR VGND VPWR VGND sky130_ef_sc_hd__decap_12
XFILLER_95_169 VGND VGND VPWR VPWR sky130_fd_sc_hd__decap_4
XFILLER_49_553 VGND VGND VPWR VPWR sky130_fd_sc_hd__decap_6
XTAP_TAPCELL_ROW_106_2030 VGND VPWR sky130_fd_sc_hd__tapvpwrvgnd_1
XFILLER_77_895 VGND VGND VPWR VPWR sky130_fd_sc_hd__fill_1
XFILLER_49_586 VPWR VGND VPWR VGND sky130_ef_sc_hd__decap_12
XANTENNA__2275__A A_reg\[1\] VGND VGND VPWR VPWR sky130_fd_sc_hd__diode_2
XFILLER_24_409 VGND VGND VPWR VPWR sky130_fd_sc_hd__decap_8
XFILLER_91_375 VPWR VGND VPWR VGND sky130_ef_sc_hd__decap_12
XFILLER_64_589 VPWR VGND VPWR VGND sky130_ef_sc_hd__decap_12
XFILLER_17_461 VPWR VGND VPWR VGND sky130_ef_sc_hd__decap_12
XFILLER_149_105 VGND VGND VPWR VPWR sky130_fd_sc_hd__decap_6
XFILLER_32_475 VGND VGND VPWR VPWR sky130_fd_sc_hd__fill_1
XFILLER_149_149 VPWR VGND VPWR VGND sky130_ef_sc_hd__decap_12
XFILLER_20_637 VGND VGND VPWR VPWR sky130_fd_sc_hd__decap_6
XFILLER_9_671 VGND VGND VPWR VPWR sky130_fd_sc_hd__fill_1
XFILLER_146_867 VGND VGND VPWR VPWR sky130_fd_sc_hd__fill_1
XFILLER_118_525 VGND VGND VPWR VPWR sky130_fd_sc_hd__decap_6
X_2724_ _0422_ _0437_ VGND VGND VPWR VPWR _0464_ sky130_fd_sc_hd__xnor2_1
XFILLER_133_517 VPWR VGND VPWR VGND sky130_ef_sc_hd__decap_12
XFILLER_118_569 VPWR VGND VPWR VGND sky130_ef_sc_hd__decap_12
X_2655_ a_r3\[3\] _0393_ VGND VGND VPWR VPWR _0395_ sky130_fd_sc_hd__xor2_1
X_1606_ A_reg\[0\] VGND VGND VPWR VPWR _0886_ sky130_fd_sc_hd__inv_2
X_2586_ a_r2\[0\] a_r2\[1\] VGND VGND VPWR VPWR _0331_ sky130_fd_sc_hd__nand2_1
XFILLER_141_561 VPWR VGND VPWR VGND sky130_ef_sc_hd__decap_12
XFILLER_86_136 VGND VGND VPWR VPWR sky130_fd_sc_hd__decap_4
XFILLER_74_309 VPWR VGND VPWR VGND sky130_ef_sc_hd__decap_12
X_3207_ X_crt\[11\] _0912_ VGND VGND VPWR VPWR _0100_ sky130_fd_sc_hd__and2_1
XFILLER_83_821 VPWR VGND VPWR VGND sky130_ef_sc_hd__decap_12
X_3138_ _0773_ _0822_ _0823_ VGND VGND VPWR VPWR _0826_ sky130_fd_sc_hd__a21oi_2
XFILLER_27_225 VGND VGND VPWR VPWR sky130_fd_sc_hd__fill_2
XFILLER_28_737 VPWR VGND VPWR VGND sky130_ef_sc_hd__decap_12
XFILLER_103_57 VPWR VGND VPWR VGND sky130_ef_sc_hd__decap_12
XFILLER_83_865 VPWR VGND VPWR VGND sky130_ef_sc_hd__decap_12
XTAP_TAPCELL_ROW_2_368 VGND VPWR sky130_fd_sc_hd__tapvpwrvgnd_1
XTAP_TAPCELL_ROW_2_357 VGND VPWR sky130_fd_sc_hd__tapvpwrvgnd_1
XFILLER_27_258 VGND VGND VPWR VPWR sky130_fd_sc_hd__decap_8
XFILLER_70_515 VPWR VGND VPWR VGND sky130_ef_sc_hd__decap_12
XANTENNA__2185__A A_reg\[9\] VGND VGND VPWR VPWR sky130_fd_sc_hd__diode_2
XFILLER_36_781 VPWR VGND VPWR VGND sky130_ef_sc_hd__decap_12
X_3069_ _0754_ _0756_ VGND VGND VPWR VPWR _0757_ sky130_fd_sc_hd__nor2_1
XFILLER_43_729 VPWR VGND VPWR VGND sky130_ef_sc_hd__decap_12
XTAP_TAPCELL_ROW_42_1007 VGND VPWR sky130_fd_sc_hd__tapvpwrvgnd_1
XTAP_TAPCELL_ROW_137_2524 VGND VPWR sky130_fd_sc_hd__tapvpwrvgnd_1
XFILLER_23_497 VGND VGND VPWR VPWR sky130_fd_sc_hd__decap_6
XANTENNA__2124__S B_reg\[6\] VGND VGND VPWR VPWR sky130_fd_sc_hd__diode_2
XFILLER_136_333 VPWR VGND VPWR VGND sky130_ef_sc_hd__decap_12
XFILLER_109_536 VGND VGND VPWR VPWR sky130_fd_sc_hd__fill_1
XTAP_TAPCELL_ROW_21_665 VGND VPWR sky130_fd_sc_hd__tapvpwrvgnd_1
XTAP_TAPCELL_ROW_150_2735 VGND VPWR sky130_fd_sc_hd__tapvpwrvgnd_1
XTAP_TAPCELL_ROW_150_2724 VGND VPWR sky130_fd_sc_hd__tapvpwrvgnd_1
XFILLER_137_889 VGND VGND VPWR VPWR sky130_fd_sc_hd__decap_6
XFILLER_12_65 VPWR VGND VPWR VGND sky130_ef_sc_hd__decap_12
XFILLER_152_837 VPWR VGND VPWR VGND sky130_ef_sc_hd__decap_12
XFILLER_136_377 VPWR VGND VPWR VGND sky130_ef_sc_hd__decap_12
XFILLER_128_65 VPWR VGND VPWR VGND sky130_ef_sc_hd__decap_12
XFILLER_2_302 VGND VGND VPWR VPWR sky130_fd_sc_hd__decap_6
XFILLER_105_753 VPWR VGND VPWR VGND sky130_ef_sc_hd__decap_12
XTAP_TAPCELL_ROW_57_1250 VGND VPWR sky130_fd_sc_hd__tapvpwrvgnd_1
XFILLER_120_701 VPWR VGND VPWR VGND sky130_ef_sc_hd__decap_12
XFILLER_105_797 VPWR VGND VPWR VGND sky130_ef_sc_hd__decap_12
XFILLER_2_379 VPWR VGND VPWR VGND sky130_ef_sc_hd__decap_12
XFILLER_144_53 VPWR VGND VPWR VGND sky130_ef_sc_hd__decap_12
XFILLER_77_125 VGND VGND VPWR VPWR sky130_fd_sc_hd__decap_4
XTAP_TAPCELL_ROW_70_1450 VGND VPWR sky130_fd_sc_hd__tapvpwrvgnd_1
XTAP_TAPCELL_ROW_148_2697 VGND VPWR sky130_fd_sc_hd__tapvpwrvgnd_1
XFILLER_144_97 VPWR VGND VPWR VGND sky130_ef_sc_hd__decap_12
XANTENNA__3252__Q OpSel_reg\[0\] VGND VGND VPWR VPWR sky130_fd_sc_hd__diode_2
XFILLER_77_169 VPWR VGND VPWR VGND sky130_ef_sc_hd__decap_12
XFILLER_74_810 VGND VGND VPWR VPWR sky130_fd_sc_hd__fill_2
XFILLER_59_895 VGND VGND VPWR VPWR sky130_fd_sc_hd__fill_1
XFILLER_37_51 VGND VGND VPWR VPWR sky130_fd_sc_hd__decap_4
XFILLER_73_342 VPWR VGND VPWR VGND sky130_ef_sc_hd__decap_12
XFILLER_46_545 VPWR VGND VPWR VGND sky130_ef_sc_hd__decap_12
XFILLER_46_589 VPWR VGND VPWR VGND sky130_ef_sc_hd__decap_12
XTAP_TAPCELL_ROW_29_798 VGND VPWR sky130_fd_sc_hd__tapvpwrvgnd_1
XFILLER_61_559 VGND VGND VPWR VPWR sky130_fd_sc_hd__fill_1
XFILLER_147_609 VGND VGND VPWR VPWR sky130_fd_sc_hd__decap_6
XFILLER_139_193 VPWR VGND VPWR VGND sky130_ef_sc_hd__decap_12
XFILLER_10_681 VPWR VGND VPWR VGND sky130_ef_sc_hd__decap_12
XTAP_TAPCELL_ROW_40_974 VGND VPWR sky130_fd_sc_hd__tapvpwrvgnd_1
XFILLER_128_867 VGND VGND VPWR VPWR sky130_fd_sc_hd__fill_1
XFILLER_115_517 VPWR VGND VPWR VGND sky130_ef_sc_hd__decap_12
XFILLER_108_580 VGND VGND VPWR VPWR sky130_fd_sc_hd__decap_8
X_2440_ _0189_ b_r0\[0\] a_r0\[0\] VGND VGND VPWR VPWR _0190_ sky130_fd_sc_hd__mux2_1
XFILLER_123_561 VPWR VGND VPWR VGND sky130_ef_sc_hd__decap_12
XFILLER_96_401 VGND VGND VPWR VPWR sky130_fd_sc_hd__decap_8
X_2371_ _0123_ _0124_ VGND VGND VPWR VPWR _0125_ sky130_fd_sc_hd__nor2_1
XFILLER_69_615 VGND VGND VPWR VPWR sky130_fd_sc_hd__fill_1
XFILLER_110_233 VPWR VGND VPWR VGND sky130_ef_sc_hd__decap_12
XFILLER_96_445 VPWR VGND VPWR VGND sky130_ef_sc_hd__decap_12
XANTENNA__3294__RESET_B net36 VGND VGND VPWR VPWR sky130_fd_sc_hd__diode_2
XFILLER_56_309 VPWR VGND VPWR VGND sky130_ef_sc_hd__decap_12
XANTENNA__3223__RESET_B net36 VGND VGND VPWR VPWR sky130_fd_sc_hd__diode_2
XFILLER_110_277 VPWR VGND VPWR VGND sky130_ef_sc_hd__decap_12
XTAP_TAPCELL_ROW_88_1744 VGND VPWR sky130_fd_sc_hd__tapvpwrvgnd_1
XTAP_TAPCELL_ROW_88_1733 VGND VPWR sky130_fd_sc_hd__tapvpwrvgnd_1
XFILLER_65_821 VPWR VGND VPWR VGND sky130_ef_sc_hd__decap_12
XANTENNA__1657__A1 A_reg\[11\] VGND VGND VPWR VPWR sky130_fd_sc_hd__diode_2
XFILLER_65_865 VPWR VGND VPWR VGND sky130_ef_sc_hd__decap_12
XFILLER_64_353 VGND VGND VPWR VPWR sky130_fd_sc_hd__decap_8
XFILLER_64_342 VGND VGND VPWR VPWR sky130_fd_sc_hd__decap_8
XFILLER_80_813 VPWR VGND VPWR VGND sky130_ef_sc_hd__decap_12
XFILLER_18_781 VPWR VGND VPWR VGND sky130_ef_sc_hd__decap_12
XFILLER_25_729 VPWR VGND VPWR VGND sky130_ef_sc_hd__decap_12
XFILLER_20_401 VPWR VGND VPWR VGND sky130_ef_sc_hd__decap_12
XTAP_TAPCELL_ROW_119_2243 VGND VPWR sky130_fd_sc_hd__tapvpwrvgnd_1
XTAP_TAPCELL_ROW_119_2232 VGND VPWR sky130_fd_sc_hd__tapvpwrvgnd_1
XFILLER_20_456 VPWR VGND VPWR VGND sky130_ef_sc_hd__decap_12
XFILLER_118_333 VPWR VGND VPWR VGND sky130_ef_sc_hd__decap_12
XFILLER_20_489 VPWR VGND VPWR VGND sky130_ef_sc_hd__decap_12
XFILLER_119_889 VGND VGND VPWR VPWR sky130_fd_sc_hd__decap_6
X_2707_ a_r3\[2\] b_r3\[1\] _0445_ VGND VGND VPWR VPWR _0447_ sky130_fd_sc_hd__a21o_1
XFILLER_134_837 VPWR VGND VPWR VGND sky130_ef_sc_hd__decap_12
XTAP_TAPCELL_ROW_132_2443 VGND VPWR sky130_fd_sc_hd__tapvpwrvgnd_1
XFILLER_118_377 VPWR VGND VPWR VGND sky130_ef_sc_hd__decap_12
XANTENNA__1636__X net37 VGND VGND VPWR VPWR sky130_fd_sc_hd__diode_2
X_2638_ _0184_ _0380_ _0381_ _0910_ u_crt.r2\[1\] VGND VGND VPWR VPWR _0033_ sky130_fd_sc_hd__a32o_1
XFILLER_142_881 VPWR VGND VPWR VGND sky130_ef_sc_hd__decap_12
XFILLER_102_701 VPWR VGND VPWR VGND sky130_ef_sc_hd__decap_12
XFILLER_99_261 VGND VGND VPWR VPWR sky130_fd_sc_hd__decap_8
X_2569_ _0306_ _0313_ VGND VGND VPWR VPWR _0314_ sky130_fd_sc_hd__and2_1
XTAP_TAPCELL_ROW_7_438 VGND VPWR sky130_fd_sc_hd__tapvpwrvgnd_1
XFILLER_141_391 VGND VGND VPWR VPWR sky130_fd_sc_hd__fill_1
XTAP_TAPCELL_ROW_7_449 VGND VPWR sky130_fd_sc_hd__tapvpwrvgnd_1
XFILLER_75_629 VGND VGND VPWR VPWR sky130_fd_sc_hd__decap_4
XFILLER_59_169 VGND VGND VPWR VPWR sky130_fd_sc_hd__decap_6
XFILLER_74_139 VGND VGND VPWR VPWR sky130_fd_sc_hd__fill_1
XFILLER_28_501 VPWR VGND VPWR VGND sky130_ef_sc_hd__decap_12
XANTENNA__1812__A A_reg\[3\] VGND VGND VPWR VPWR sky130_fd_sc_hd__diode_2
XFILLER_28_545 VPWR VGND VPWR VGND sky130_ef_sc_hd__decap_12
XFILLER_83_673 VPWR VGND VPWR VGND sky130_ef_sc_hd__decap_12
XFILLER_55_386 VGND VGND VPWR VPWR sky130_fd_sc_hd__decap_6
XFILLER_55_353 VGND VGND VPWR VPWR sky130_fd_sc_hd__fill_1
XFILLER_15_217 VGND VGND VPWR VPWR sky130_fd_sc_hd__decap_6
XFILLER_28_589 VPWR VGND VPWR VGND sky130_ef_sc_hd__decap_12
XFILLER_82_183 VGND VGND VPWR VPWR sky130_fd_sc_hd__fill_2
XFILLER_70_345 VPWR VGND VPWR VGND sky130_ef_sc_hd__decap_12
XTAP_TAPCELL_ROW_26_746 VGND VPWR sky130_fd_sc_hd__tapvpwrvgnd_1
XFILLER_43_559 VGND VGND VPWR VPWR sky130_fd_sc_hd__fill_1
XFILLER_130_77 VGND VGND VPWR VPWR sky130_fd_sc_hd__decap_6
XFILLER_30_209 VGND VGND VPWR VPWR sky130_fd_sc_hd__decap_8
XFILLER_129_609 VGND VGND VPWR VPWR sky130_fd_sc_hd__decap_6
XFILLER_135_3 VPWR VGND VPWR VGND sky130_ef_sc_hd__decap_12
XANTENNA__3320__CLK clknet_3_5__leaf_clk VGND VGND VPWR VPWR sky130_fd_sc_hd__diode_2
XPHY_EDGE_ROW_137_Right_137 VGND VGND VPWR VPWR sky130_fd_sc_hd__decap_3
XFILLER_7_449 VGND VGND VPWR VPWR sky130_fd_sc_hd__decap_4
XFILLER_7_416 VPWR VGND VPWR VGND sky130_ef_sc_hd__decap_12
XFILLER_152_601 VPWR VGND VPWR VGND sky130_ef_sc_hd__decap_12
XFILLER_137_653 VPWR VGND VPWR VGND sky130_ef_sc_hd__decap_12
XFILLER_136_141 VPWR VGND VPWR VGND sky130_ef_sc_hd__decap_12
XFILLER_151_111 VGND VGND VPWR VPWR sky130_fd_sc_hd__fill_1
XFILLER_137_697 VPWR VGND VPWR VGND sky130_ef_sc_hd__decap_12
XFILLER_99_57 VPWR VGND VPWR VGND sky130_ef_sc_hd__decap_12
XFILLER_152_645 VPWR VGND VPWR VGND sky130_ef_sc_hd__decap_12
XTAP_TAPCELL_ROW_55_1209 VGND VPWR sky130_fd_sc_hd__tapvpwrvgnd_1
XFILLER_2_121 VPWR VGND VPWR VGND sky130_ef_sc_hd__decap_12
XFILLER_105_572 VPWR VGND VPWR VGND sky130_ef_sc_hd__decap_12
XFILLER_78_412 VGND VGND VPWR VPWR sky130_fd_sc_hd__decap_8